[General]
network = Network

sim-time-limit = 200s
Network.nodeTx.gen.generationInterval=exponential(0.3)
Network.nodeTx.gen.packetByteSize = 12500
Network.queue.bufferSize = 200
Network.nodeRx.queue.bufferSize = 200
Network.nodeTx.queue.bufferSize = 2000000